! xtb2 opt
%pal 
    nprocs 9
end

%geom
    ConstrainFragments 
        { 1 }
        { 2 }
        { 3 }
        { 4 }
    end # constrain all internal coordinates of fragment 1,2,3,4
    ConnectFragments
        {1 5 O}
        {2 5 O}
        {3 5 O}
        {4 5 O}
        {1 3 O}
        {3 2 O}
        {2 4 O}
        {4 1 O}
    end
    optimizeHydrogens true # do not constrain any hydrogen position
end
* xyz 0 1
C(1)     0.824   8.697   1.039 
H(1)     0.561   9.629   1.288 
H(1)     1.260   8.253   1.822 
H(1)     1.465   8.725   0.272 
C(1)    -0.417   7.910   0.635 
O(1)    -0.332   6.725   0.286 
N(1)    -1.580   8.556   0.662 
H(1)    -1.596   9.503   0.982 
C(1)    -2.834   7.935   0.243 
H(1)    -2.833   7.013   0.630 
C(1)    -4.005   8.766   0.793 
H(1)    -3.873   9.729   0.559 
O(1)    -4.025   8.668   2.222 
H(1)    -4.786   9.208   2.583 
C(1)    -5.347   8.297   0.253 
H(1)    -6.077   8.864   0.636 
H(1)    -5.351   8.377  -0.744 
H(1)    -5.495   7.343   0.512 
C(1)    -2.918   7.793  -1.276 
O(1)    -3.151   6.694  -1.796 
N(1)    -2.758   8.900  -2.008 
H(1)    -2.455   9.748  -1.573 
C(1)    -3.025   8.871  -3.443 
H(1)    -3.906   8.418  -3.579 
H(1)    -3.084   9.817  -3.761 
C(1)    -1.951   8.138  -4.230 
O(1)    -2.229   7.695  -5.352 
N(1)    -0.745   7.992  -3.679 
H(1)    -0.535   8.463  -2.822 
C(1)     0.272   7.155  -4.308 
H(1)     0.098   7.260  -5.287 
C(1)     1.681   7.645  -3.955 
H(1)     2.369   7.039  -4.354 
O(1)     1.883   7.560  -2.537 
H(1)     2.803   7.881  -2.312 
C(1)     1.912   9.080  -4.454 
H(1)     2.837   9.373  -4.211 
H(1)     1.804   9.109  -5.448 
H(1)     1.246   9.692  -4.028 
C(1)     0.120   5.683  -3.938 
O(1)     0.891   4.847  -4.434 
N(1)    -0.859   5.364  -3.089 
H(1)    -1.410   6.118  -2.732 
C(1)    -1.205   4.019  -2.629 
H(1)    -2.020   4.240  -2.094 
C(1)    -1.612   3.030  -3.739 
H(1)    -2.015   2.211  -3.332 
O(1)    -0.464   2.530  -4.434 
H(1)    -0.757   1.892  -5.146 
C(1)    -2.614   3.664  -4.712 
H(1)    -2.858   3.000  -5.419 
H(1)    -3.436   3.937  -4.213 
H(1)    -2.201   4.468  -5.139 
C(1)    -0.177   3.401  -1.694 
O(1)    -0.227   2.197  -1.458 
N(1)     0.714   4.202  -1.109 
H(1)     0.742   5.171  -1.354 
C(1)     1.652   3.683  -0.113 
H(1)     2.063   2.862  -0.510 
C(1)     2.763   4.713   0.157 
H(1)     2.337   5.576   0.430 
C(1)     3.660   4.258   1.295 
H(1)     4.373   4.942   1.452 
H(1)     3.115   4.149   2.126 
H(1)     4.083   3.384   1.057 
C(1)     3.595   4.946  -1.108 
H(1)     4.312   5.617  -0.917 
H(1)     4.013   4.084  -1.395 
H(1)     3.003   5.289  -1.838 
C(1)     0.912   3.267   1.161 
O(1)     1.027   2.126   1.628 
N(1)     0.148   4.184   1.751 
H(1)     0.181   5.132   1.434 
C(1)    -0.735   3.825   2.851 
H(1)    -1.259   4.647   3.075 
H(1)    -1.353   3.120   2.501 
C(1)    -0.068   3.307   4.122 
O(1)    -0.474   2.266   4.653 
N(1)     0.907   4.040   4.674 
H(1)     1.186   4.901   4.249 
C(1)     1.564   3.582   5.897 
H(1)     2.016   2.733   5.622 
C(1)     2.561   4.620   6.401 
H(1)     2.940   4.290   7.266 
H(1)     2.065   5.474   6.559 
C(1)     3.719   4.933   5.492 
C(1)     4.560   3.936   5.012 
H(1)     4.382   2.983   5.256 
C(1)     5.641   4.241   4.202 
H(1)     6.235   3.514   3.858 
C(1)     5.892   5.558   3.874 
O(1)     6.945   5.907   3.073 
H(1)     6.958   6.900   2.953 
C(1)     4.007   6.244   5.159 
H(1)     3.430   6.978   5.516 
C(1)     5.074   6.560   4.344 
H(1)     5.252   7.512   4.096 
C(1)     0.570   3.315   7.014 
O(1)     0.755   2.382   7.804 
N(1)    -0.439   4.171   7.159 
H(1)    -0.562   4.910   6.497 
C(1)    -1.358   4.040   8.267 
H(1)    -2.219   4.466   7.989 
H(1)    -1.503   3.062   8.417 
C(1)    -0.880   4.676   9.552 
O(1)    -1.529   4.503  10.591 
N(1)     0.239   5.403   9.523 
H(1)     0.830   5.379   8.717 
C(1)     0.598   6.231  10.667 
H(1)     0.600   5.609  11.450 
C(1)     2.009   6.828  10.517 
H(1)     2.675   6.086  10.592 
H(1)     2.155   7.483  11.258 
C(1)     2.252   7.550   9.193 
O(1)     1.483   7.409   8.222 
O(1)     3.277   8.265   9.119 
C(1)    -0.457   7.297  10.909 
N(1)    -0.948   7.696  10.135 
H(1)    -0.745   7.393   9.204 
H(1)    -1.643   8.398  10.291 
O(1)    -0.711   7.674  12.059 
C(2)    -0.824  -8.697   1.039 
H(2)    -0.561  -9.629   1.288 
H(2)    -1.260  -8.253   1.822 
H(2)    -1.465  -8.725   0.272 
C(2)     0.417  -7.910   0.635 
O(2)     0.332  -6.725   0.286 
N(2)     1.580  -8.556   0.662 
H(2)     1.596  -9.503   0.982 
C(2)     2.834  -7.935   0.243 
H(2)     2.833  -7.013   0.630 
C(2)     4.005  -8.766   0.793 
H(2)     3.873  -9.729   0.559 
O(2)     4.025  -8.668   2.222 
H(2)     4.786  -9.208   2.583 
C(2)     5.347  -8.297   0.253 
H(2)     6.077  -8.864   0.636 
H(2)     5.351  -8.377  -0.744 
H(2)     5.495  -7.343   0.512 
C(2)     2.918  -7.793  -1.276 
O(2)     3.151  -6.694  -1.796 
N(2)     2.758  -8.900  -2.008 
H(2)     2.455  -9.748  -1.573 
C(2)     3.025  -8.871  -3.443 
H(2)     3.906  -8.418  -3.579 
H(2)     3.084  -9.817  -3.761 
C(2)     1.951  -8.138  -4.230 
O(2)     2.229  -7.695  -5.352 
N(2)     0.745  -7.992  -3.679 
H(2)     0.535  -8.463  -2.822 
C(2)    -0.272  -7.155  -4.308 
H(2)    -0.098  -7.260  -5.287 
C(2)    -1.681  -7.645  -3.955 
H(2)    -2.369  -7.039  -4.354 
O(2)    -1.883  -7.560  -2.537 
H(2)    -2.803  -7.881  -2.312 
C(2)    -1.912  -9.080  -4.454 
H(2)    -2.837  -9.373  -4.211 
H(2)    -1.804  -9.109  -5.448 
H(2)    -1.246  -9.692  -4.028 
C(2)    -0.120  -5.683  -3.938 
O(2)    -0.891  -4.847  -4.434 
N(2)     0.859  -5.364  -3.089 
H(2)     1.410  -6.118  -2.732 
C(2)     1.205  -4.019  -2.629 
H(2)     2.020  -4.240  -2.094 
C(2)     1.612  -3.030  -3.739 
H(2)     2.015  -2.211  -3.332 
O(2)     0.464  -2.530  -4.434 
H(2)     0.757  -1.892  -5.146 
C(2)     2.614  -3.664  -4.712 
H(2)     2.858  -3.000  -5.419 
H(2)     3.436  -3.937  -4.213 
H(2)     2.201  -4.468  -5.139 
C(2)     0.177  -3.401  -1.694 
O(2)     0.227  -2.197  -1.458 
N(2)    -0.714  -4.202  -1.109 
H(2)    -0.742  -5.171  -1.354 
C(2)    -1.652  -3.683  -0.113 
H(2)    -2.063  -2.862  -0.510 
C(2)    -2.763  -4.713   0.157 
H(2)    -2.337  -5.576   0.430 
C(2)    -3.660  -4.258   1.295 
H(2)    -4.373  -4.942   1.452 
H(2)    -3.115  -4.149   2.126 
H(2)    -4.083  -3.384   1.057 
C(2)    -3.595  -4.946  -1.108 
H(2)    -4.312  -5.617  -0.917 
H(2)    -4.013  -4.084  -1.395 
H(2)    -3.003  -5.289  -1.838 
C(2)    -0.912  -3.267   1.161 
O(2)    -1.027  -2.126   1.628 
N(2)    -0.148  -4.184   1.751 
H(2)    -0.181  -5.132   1.434 
C(2)     0.735  -3.825   2.851 
H(2)     1.259  -4.647   3.075 
H(2)     1.353  -3.120   2.501 
C(2)     0.068  -3.307   4.122 
O(2)     0.474  -2.266   4.653 
N(2)    -0.907  -4.040   4.674 
H(2)    -1.186  -4.901   4.249 
C(2)    -1.564  -3.582   5.897 
H(2)    -2.016  -2.733   5.622 
C(2)    -2.561  -4.620   6.401 
H(2)    -2.940  -4.290   7.266 
H(2)    -2.065  -5.474   6.559 
C(2)    -3.719  -4.933   5.492 
C(2)    -4.560  -3.936   5.012 
H(2)    -4.382  -2.983   5.256 
C(2)    -5.641  -4.241   4.202 
H(2)    -6.235  -3.514   3.858 
C(2)    -5.892  -5.558   3.874 
O(2)    -6.945  -5.907   3.073 
H(2)    -6.958  -6.900   2.953 
C(2)    -4.007  -6.244   5.159 
H(2)    -3.430  -6.978   5.516 
C(2)    -5.074  -6.560   4.344 
H(2)    -5.252  -7.512   4.096 
C(2)    -0.570  -3.315   7.014 
O(2)    -0.755  -2.382   7.804 
N(2)     0.439  -4.171   7.159 
H(2)     0.562  -4.910   6.497 
C(2)     1.358  -4.040   8.267 
H(2)     2.219  -4.466   7.989 
H(2)     1.503  -3.062   8.417 
C(2)     0.880  -4.676   9.552 
O(2)     1.529  -4.503  10.591 
N(2)    -0.239  -5.403   9.523 
H(2)    -0.830  -5.379   8.717 
C(2)    -0.598  -6.231  10.667 
H(2)    -0.600  -5.609  11.450 
C(2)    -2.009  -6.828  10.517 
H(2)    -2.675  -6.086  10.592 
H(2)    -2.155  -7.483  11.258 
C(2)    -2.252  -7.550   9.193 
O(2)    -1.483  -7.409   8.222 
O(2)    -3.277  -8.265   9.119 
C(2)     0.457  -7.297  10.909 
N(2)     0.948  -7.696  10.135 
H(2)     0.745  -7.393   9.204 
H(2)     1.643  -8.398  10.291 
O(2)     0.711  -7.674  12.059 
C(3)     8.697  -0.824   1.039 
H(3)     9.629  -0.561   1.288 
H(3)     8.253  -1.260   1.822 
H(3)     8.725  -1.465   0.272 
C(3)     7.910   0.417   0.635 
O(3)     6.725   0.332   0.286 
N(3)     8.556   1.580   0.662 
H(3)     9.503   1.596   0.982 
C(3)     7.935   2.834   0.243 
H(3)     7.013   2.833   0.630 
C(3)     8.766   4.005   0.793 
H(3)     9.729   3.873   0.559 
O(3)     8.668   4.025   2.222 
H(3)     9.208   4.786   2.583 
C(3)     8.297   5.347   0.253 
H(3)     8.864   6.077   0.636 
H(3)     8.377   5.351  -0.744 
H(3)     7.343   5.495   0.512 
C(3)     7.793   2.918  -1.276 
O(3)     6.694   3.151  -1.796 
N(3)     8.900   2.758  -2.008 
H(3)     9.748   2.455  -1.573 
C(3)     8.871   3.025  -3.443 
H(3)     8.418   3.906  -3.579 
H(3)     9.817   3.084  -3.761 
C(3)     8.138   1.951  -4.230 
O(3)     7.695   2.229  -5.352 
N(3)     7.992   0.745  -3.679 
H(3)     8.463   0.535  -2.822 
C(3)     7.155  -0.272  -4.308 
H(3)     7.260  -0.098  -5.287 
C(3)     7.645  -1.681  -3.955 
H(3)     7.039  -2.369  -4.354 
O(3)     7.560  -1.883  -2.537 
H(3)     7.881  -2.803  -2.312 
C(3)     9.080  -1.912  -4.454 
H(3)     9.373  -2.837  -4.211 
H(3)     9.109  -1.804  -5.448 
H(3)     9.692  -1.246  -4.028 
C(3)     5.683  -0.120  -3.938 
O(3)     4.847  -0.891  -4.434 
N(3)     5.364   0.859  -3.089 
H(3)     6.118   1.410  -2.732 
C(3)     4.019   1.205  -2.629 
H(3)     4.240   2.020  -2.094 
C(3)     3.030   1.612  -3.739 
H(3)     2.211   2.015  -3.332 
O(3)     2.530   0.464  -4.434 
H(3)     1.892   0.757  -5.146 
C(3)     3.664   2.614  -4.712 
H(3)     3.000   2.858  -5.419 
H(3)     3.937   3.436  -4.213 
H(3)     4.468   2.201  -5.139 
C(3)     3.401   0.177  -1.694 
O(3)     2.197   0.227  -1.458 
N(3)     4.202  -0.714  -1.109 
H(3)     5.171  -0.742  -1.354 
C(3)     3.683  -1.652  -0.113 
H(3)     2.862  -2.063  -0.510 
C(3)     4.713  -2.763   0.157 
H(3)     5.576  -2.337   0.430 
C(3)     4.258  -3.660   1.295 
H(3)     4.942  -4.373   1.452 
H(3)     4.149  -3.115   2.126 
H(3)     3.384  -4.083   1.057 
C(3)     4.946  -3.595  -1.108 
H(3)     5.617  -4.312  -0.917 
H(3)     4.084  -4.013  -1.395 
H(3)     5.289  -3.003  -1.838 
C(3)     3.267  -0.912   1.161 
O(3)     2.126  -1.027   1.628 
N(3)     4.184  -0.148   1.751 
H(3)     5.132  -0.181   1.434 
C(3)     3.825   0.735   2.851 
H(3)     4.647   1.259   3.075 
H(3)     3.120   1.353   2.501 
C(3)     3.307   0.068   4.122 
O(3)     2.266   0.474   4.653 
N(3)     4.040  -0.907   4.674 
H(3)     4.901  -1.186   4.249 
C(3)     3.582  -1.564   5.897 
H(3)     2.733  -2.016   5.622 
C(3)     4.620  -2.561   6.401 
H(3)     4.290  -2.940   7.266 
H(3)     5.474  -2.065   6.559 
C(3)     4.933  -3.719   5.492 
C(3)     3.936  -4.560   5.012 
H(3)     2.983  -4.382   5.256 
C(3)     4.241  -5.641   4.202 
H(3)     3.514  -6.235   3.858 
C(3)     5.558  -5.892   3.874 
O(3)     5.907  -6.945   3.073 
H(3)     6.900  -6.958   2.953 
C(3)     6.244  -4.007   5.159 
H(3)     6.978  -3.430   5.516 
C(3)     6.560  -5.074   4.344 
H(3)     7.512  -5.252   4.096 
C(3)     3.315  -0.570   7.014 
O(3)     2.382  -0.755   7.804 
N(3)     4.171   0.439   7.159 
H(3)     4.910   0.562   6.497 
C(3)     4.040   1.358   8.267 
H(3)     4.466   2.219   7.989 
H(3)     3.062   1.503   8.417 
C(3)     4.676   0.880   9.552 
O(3)     4.503   1.529  10.591 
N(3)     5.403  -0.239   9.523 
H(3)     5.379  -0.830   8.717 
C(3)     6.231  -0.598  10.667 
H(3)     5.609  -0.600  11.450 
C(3)     6.828  -2.009  10.517 
H(3)     6.086  -2.675  10.592 
H(3)     7.483  -2.155  11.258 
C(3)     7.550  -2.252   9.193 
O(3)     7.409  -1.483   8.222 
O(3)     8.265  -3.277   9.119 
C(3)     7.297   0.457  10.909 
N(3)     7.696   0.948  10.135 
H(3)     7.393   0.745   9.204 
H(3)     8.398   1.643  10.291 
O(3)     7.674   0.711  12.059 
C(4)    -8.697   0.824   1.039 
H(4)    -9.629   0.561   1.288 
H(4)    -8.253   1.260   1.822 
H(4)    -8.725   1.465   0.272 
C(4)    -7.910  -0.417   0.635 
O(4)    -6.725  -0.332   0.286 
N(4)    -8.556  -1.580   0.662 
H(4)    -9.503  -1.596   0.982 
C(4)    -7.935  -2.834   0.243 
H(4)    -7.013  -2.833   0.630 
C(4)    -8.766  -4.005   0.793 
H(4)    -9.729  -3.873   0.559 
O(4)    -8.668  -4.025   2.222 
H(4)    -9.208  -4.786   2.583 
C(4)    -8.297  -5.347   0.253 
H(4)    -8.864  -6.077   0.636 
H(4)    -8.377  -5.351  -0.744 
H(4)    -7.343  -5.495   0.512 
C(4)    -7.793  -2.918  -1.276 
O(4)    -6.694  -3.151  -1.796 
N(4)    -8.900  -2.758  -2.008 
H(4)    -9.748  -2.455  -1.573 
C(4)    -8.871  -3.025  -3.443 
H(4)    -8.418  -3.906  -3.579 
H(4)    -9.817  -3.084  -3.761 
C(4)    -8.138  -1.951  -4.230 
O(4)    -7.695  -2.229  -5.352 
N(4)    -7.992  -0.745  -3.679 
H(4)    -8.463  -0.535  -2.822 
C(4)    -7.155   0.272  -4.308 
H(4)    -7.260   0.098  -5.287 
C(4)    -7.645   1.681  -3.955 
H(4)    -7.039   2.369  -4.354 
O(4)    -7.560   1.883  -2.537 
H(4)    -7.881   2.803  -2.312 
C(4)    -9.080   1.912  -4.454 
H(4)    -9.373   2.837  -4.211 
H(4)    -9.109   1.804  -5.448 
H(4)    -9.692   1.246  -4.028 
C(4)    -5.683   0.120  -3.938 
O(4)    -4.847   0.891  -4.434 
N(4)    -5.364  -0.859  -3.089 
H(4)    -6.118  -1.410  -2.732 
C(4)    -4.019  -1.205  -2.629 
H(4)    -4.240  -2.020  -2.094 
C(4)    -3.030  -1.612  -3.739 
H(4)    -2.211  -2.015  -3.332 
O(4)    -2.530  -0.464  -4.434 
H(4)    -1.892  -0.757  -5.146 
C(4)    -3.664  -2.614  -4.712 
H(4)    -3.000  -2.858  -5.419 
H(4)    -3.937  -3.436  -4.213 
H(4)    -4.468  -2.201  -5.139 
C(4)    -3.401  -0.177  -1.694 
O(4)    -2.197  -0.227  -1.458 
N(4)    -4.202   0.714  -1.109 
H(4)    -5.171   0.742  -1.354 
C(4)    -3.683   1.652  -0.113 
H(4)    -2.862   2.063  -0.510 
C(4)    -4.713   2.763   0.157 
H(4)    -5.576   2.337   0.430 
C(4)    -4.258   3.660   1.295 
H(4)    -4.942   4.373   1.452 
H(4)    -4.149   3.115   2.126 
H(4)    -3.384   4.083   1.057 
C(4)    -4.946   3.595  -1.108 
H(4)    -5.617   4.312  -0.917 
H(4)    -4.084   4.013  -1.395 
H(4)    -5.289   3.003  -1.838 
C(4)    -3.267   0.912   1.161 
O(4)    -2.126   1.027   1.628 
N(4)    -4.184   0.148   1.751 
H(4)    -5.132   0.181   1.434 
C(4)    -3.825  -0.735   2.851 
H(4)    -4.647  -1.259   3.075 
H(4)    -3.120  -1.353   2.501 
C(4)    -3.307  -0.068   4.122 
O(4)    -2.266  -0.474   4.653 
N(4)    -4.040   0.907   4.674 
H(4)    -4.901   1.186   4.249 
C(4)    -3.582   1.564   5.897 
H(4)    -2.733   2.016   5.622 
C(4)    -4.620   2.561   6.401 
H(4)    -4.290   2.940   7.266 
H(4)    -5.474   2.065   6.559 
C(4)    -4.933   3.719   5.492 
C(4)    -3.936   4.560   5.012 
H(4)    -2.983   4.382   5.256 
C(4)    -4.241   5.641   4.202 
H(4)    -3.514   6.235   3.858 
C(4)    -5.558   5.892   3.874 
O(4)    -5.907   6.945   3.073 
H(4)    -6.900   6.958   2.953 
C(4)    -6.244   4.007   5.159 
H(4)    -6.978   3.430   5.516 
C(4)    -6.560   5.074   4.344 
H(4)    -7.512   5.252   4.096 
C(4)    -3.315   0.570   7.014 
O(4)    -2.382   0.755   7.804 
N(4)    -4.171  -0.439   7.159 
H(4)    -4.910  -0.562   6.497 
C(4)    -4.040  -1.358   8.267 
H(4)    -4.466  -2.219   7.989 
H(4)    -3.062  -1.503   8.417 
C(4)    -4.676  -0.880   9.552 
O(4)    -4.503  -1.529  10.591 
N(4)    -5.403   0.239   9.523 
H(4)    -5.379   0.830   8.717 
C(4)    -6.231   0.598  10.667 
H(4)    -5.609   0.600  11.450 
C(4)    -6.828   2.009  10.517 
H(4)    -6.086   2.675  10.592 
H(4)    -7.483   2.155  11.258 
C(4)    -7.550   2.252   9.193 
O(4)    -7.409   1.483   8.222 
O(4)    -8.265   3.277   9.119 
C(4)    -7.297  -0.457  10.909 
N(4)    -7.696  -0.948  10.135 
H(4)    -7.393  -0.745   9.204 
H(4)    -8.398  -1.643  10.291 
O(4)    -7.674  -0.711  12.059 
K(5)  0.000  0.000   6.799
K(5)  0.000  0.000   3.205
K(5)  0.000  0.000   0.000
K(5)  0.000  0.000  -3.474
 O(5)  1.22314086    0.63413505    9.70651134
 H(5)  2.18314086    0.63413505    9.70651134
 H(5)  0.90268628    1.53907088    9.70651134
 O(5) -1.24461959   -1.62916414    9.95235965
 H(5) -1.44915786   -2.55347134   10.11179704
 H(5) -2.03512710   -1.17266358    9.65519788
 O(5) -0.56520465   -1.40718990  -6.21173014
 H(5)  0.03787028   -1.14695102  -6.91185609
 H(5) -0.47165884   -2.34739753  -6.04185134
 O(5)  0.65272449    1.42997362  -6.14027946
 H(5)  0.87810201    0.84350579  -6.866131 
 H(5)  1.40472737    1.99094572  -5.93680473
*
