! xtb2 opt
%pal 
    nprocs 9
end

%geom
    ConstrainFragments 
        { 1 }
        { 2 }
        { 3 }
        { 4 }
    end # constrain all internal coordinates of fragment 1,2,3,4
    ConnectFragments
        {1 5 O}
        {2 5 O}
        {3 5 O}
        {4 5 O}
        {1 3 O}
        {3 2 O}
        {2 4 O}
        {4 1 O}
    end
    optimizeHydrogens true # do not constrain any hydrogen position
end
* xyz 0 1
C(1)  1.000000000000  2.000000000000  3.000000000000
H(1)  4.000000000000  5.000000000000  6.000000000000
H(1)  7.000000000000  8.000000000000  9.000000000000
H(1)  0.810993255512  0.244098743911  0.793840691100
C(1)  0.749389330410  0.027370583883  0.075606208178
O(1)  0.870633706951  0.690942794391  0.184369727713
N(1)  0.181730233474  0.845664179989  0.939990476979
H(1)  0.527434460603  0.007031180439  0.638151880389
C(1)  0.941698091666  0.042570585216  0.331468084768
H(1)  0.107302712077  0.721416044858  0.953025105428
C(1)  0.898087549430  0.909262296080  0.507550929970
H(1)  0.179789331524  0.762150391203  0.395675375677
O(1)  0.593080085805  0.372240908561  0.190502809049
H(1)  0.133026032201  0.860759976729  0.762424899867
C(1)  0.184118894443  0.723535397899  0.893791050871
H(1)  0.994972423284  0.452676444079  0.580453021837
H(1)  0.298488921462  0.620635135881  0.656826217616
H(1)  0.766477199100  0.737657173833  0.585449454935
C(1)  0.800610418204  0.484458420342  0.541880079639
O(1)  0.198343853270  0.102756582240  0.488732100299
N(1)  0.415442604671  0.806115249771  0.113763884768
H(1)  0.327536137202  0.060111729126  0.406125235656
C(1)  0.517921305572  0.100211273439  0.582515205120
H(1)  0.349463352716  0.917047140468  0.526281033751
H(1)  0.775804752513  0.063489076825  0.308958340061
C(1)  0.530664382148  0.101644291747  0.636307729719
O(1)  0.064463865860  0.998534010584  0.037365088470
N(1)  0.661009124193  0.576381289608  0.490353053244
H(1)  0.113496396295  0.856414551857  0.296673461458
C(1)  0.288940063329  0.898532073651  0.526101999416
H(1)  0.617502023121  0.439050927558  0.863337736864
C(1)  0.255761826753  0.656911606315  0.462500631723
H(1)  0.471809024694  0.748700787712  0.606694916099
O(1)  0.641567263551  0.002700486983  0.996701095654
H(1)  0.698161934939  0.585598726056  0.824206430617
C(1)  0.954802593613  0.097890499736  0.327651033155
H(1)  0.152346814137  0.097052252011  0.903332108794
H(1)  0.907080441975  0.943033298145  0.130857672953
H(1)  0.876911050166  0.131205504444  0.780520196506
C(1)  0.782636333963  0.956976790458  0.914634571960
O(1)  0.152839559337  0.551218391973  0.261218303399
N(1)  0.507765051641  0.761838127184  0.096180838307
H(1)  0.517696384491  0.919259358680  0.564097464142
C(1)  0.246440027787  0.110225508259  0.503741449250
H(1)  0.035942906891  0.579237285815  0.822991718578
C(1)  0.537979616156  0.397906333090  0.649533040566
H(1)  0.817151617148  0.789131773745  0.260719787860
O(1)  0.043892132017  0.250447537028  0.178054314780
H(1)  0.515600695305  0.687662764432  0.057452998307
C(1)  0.913473800062  0.709607667353  0.856711663932
H(1)  0.294444089099  0.538056342522  0.863787073419
H(1)  0.474616609341  0.707030525821  0.816768335761
H(1)  0.634032948873  0.628385235364  0.083197771355
C(1)  0.405220401895  0.678313143816  0.737148994846
O(1)  0.155528528256  0.077495045468  0.430649205675
N(1)  0.008185109842  0.652420375318  0.351162913351
H(1)  0.557723708865  0.603740594576  0.301215941500
C(1)  0.951057010451  0.398154067960  0.809904897832
H(1)  0.577070676729  0.792316113985  0.759032848695
C(1)  0.384119230443  0.895824323180  0.245191578276
H(1)  0.141004359692  0.756901496108  0.015219383895
C(1)  0.530897361138  0.766554791204  0.797931233536
H(1)  0.082312938859  0.816300827650  0.269568824309
H(1)  0.418153851142  0.163741849404  0.537957907972
H(1)  0.373399487762  0.748821389767  0.283425189360
C(1)  0.503613315800  0.556610752619  0.049969708935
H(1)  0.444621634621  0.873622773175  0.285160292449
H(1)  0.438887798004  0.644541418123  0.527337951620
H(1)  0.651309649733  0.009704580925  0.912036989687
C(1)  0.344143424519  0.615476906878  0.990855709028
O(1)  0.860487965978  0.824656131460  0.079622460210
N(1)  0.935164629434  0.125090105664  0.915553290791
H(1)  0.522598027585  0.828887936191  0.513884949555
C(1)  0.040016195187  0.847541763281  0.328741140676
H(1)  0.125389631381  0.338945500623  0.747242927928
H(1)  0.026172204872  0.972182327730  0.519563668772
C(1)  0.968720930702  0.505807239575  0.370839902421
O(1)  0.162176483257  0.005898935198  0.275817405992
N(1)  0.930397370306  0.347759060966  0.454313558303
H(1)  0.684457541427  0.533501786143  0.589798838458
C(1)  0.689438340841  0.734526499058  0.431911623481
H(1)  0.223166442924  0.278456634493  0.911081318331
C(1)  0.618901244772  0.657377358689  0.839503686266
H(1)  0.176731945613  0.208338616486  0.906478024227
H(1)  0.490517251333  0.825581034115  0.452240178821
C(1)  0.230739826222  0.675200531210  0.710386646204
C(1)  0.235771996328  0.646486557652  0.104581407185
H(1)  0.779107171906  0.959146533600  0.451822040222
C(1)  0.428664207915  0.184026578889  0.869440887980
H(1)  0.566319914342  0.792459180369  0.177741906164
C(1)  0.431905546906  0.503815505158  0.819184593474
O(1)  0.320325964815  0.980405515306  0.969140805509
H(1)  0.482720636458  0.419480179089  0.805726683982
C(1)  0.249414477980  0.797126543320  0.668121214670
H(1)  0.801647895190  0.768781854985  0.889843925812
C(1)  0.436891673305  0.072556215991  0.599043237651
H(1)  0.885891290033  0.959039609443  0.237684595318
C(1)  0.472286991715  0.538734537949  0.952071112276
O(1)  0.533018977848  0.996858195739  0.085093434682
N(1)  0.637639769117  0.200178429651  0.913941960597
H(1)  0.006258082166  0.779430068018  0.977303828720
C(1)  0.824682034734  0.486471376463  0.148918874978
H(1)  0.790039637917  0.414318614581  0.236436999981
H(1)  0.009164035540  0.309728563707  0.192614993998
C(1)  0.499068408020  0.525698277173  0.118039182590
O(1)  0.078879860522  0.573671396613  0.627195621862
N(1)  0.694654813742  0.220706384268  0.449186541050
H(1)  0.387547871819  0.962665824721  0.129485764243
C(1)  0.058396367532  0.741374978882  0.336536629246
H(1)  0.924450855847  0.514227055000  0.746727277651
C(1)  0.780616980566  0.682491016830  0.005592317306
H(1)  0.173282847734  0.707251951802  0.657482179610
H(1)  0.282930066449  0.597295104230  0.499635651237
C(1)  0.386912373847  0.362001217052  0.743634853023
O(1)  0.149919187896  0.119557056046  0.352422296580
O(1)  0.192272168330  0.552266506751  0.300621890704
C(1)  0.370570552166  0.887010749864  0.223260937205
N(1)  0.412380691998  0.676092167657  0.527473008022
H(1)  0.271529314460  0.872878346922  0.237909521388
H(1)  0.627254374126  0.197906957989  0.684940617761
O(1)  0.689239769274  0.353202525936  0.886766955275
C(2)  0.911315328268  0.725654554926  0.078875605453
H(2)  0.788776771048  0.840436884998  0.302919655283
H(2)  0.327193544264  0.583916959352  0.762952622748
H(2)  0.396062492388  0.672759578714  0.091867012227
C(2)  0.748407278830  0.121257646741  0.163501818935
O(2)  0.368691746425  0.266336185290  0.936253080017
N(2)  0.395291710651  0.736901664513  0.673597112177
H(2)  0.300173271093  0.290381059444  0.277268799583
C(2)  0.810804279764  0.365554843820  0.611156362865
H(2)  0.799684119501  0.529394189390  0.542630132792
C(2)  0.838980984351  0.435457532837  0.605831234826
H(2)  0.855357985150  0.543094506205  0.576941050210
O(2)  0.619630780188  0.437740380066  0.529444076432
H(2)  0.663171618685  0.040231024384  0.414315436559
C(2)  0.314252829398  0.359629944507  0.106750788290
H(2)  0.382627188333  0.733281509936  0.036999164940
H(2)  0.946290228717  0.511532263907  0.308060795087
H(2)  0.884416195355  0.325120227513  0.037678587398
C(2)  0.390158130409  0.909846109342  0.570396631845
O(2)  0.610959315535  0.910525804447  0.094168958922
N(2)  0.868406215780  0.944868253189  0.463843665149
H(2)  0.928355984803  0.100463067431  0.485609077646
C(2)  0.245886113695  0.002656140053  0.326877788094
H(2)  0.940520605571  0.215546452586  0.111740521565
H(2)  0.355969526261  0.058680012285  0.731943796856
C(2)  0.164493807164  0.163912945097  0.269696269427
O(2)  0.365120671683  0.286635990939  0.487865468904
N(2)  0.484115458318  0.334404246454  0.451261981764
H(2)  0.243026815258  0.946136113029  0.939609031552
C(2)  0.374256919253  0.465440902617  0.410445783096
H(2)  0.239334107266  0.640282028816  0.739234952210
C(2)  0.515620923283  0.561046307465  0.357355105890
H(2)  0.178316507714  0.457915697737  0.596434837373
O(2)  0.986726768609  0.658192461689  0.785008796783
H(2)  0.522339457005  0.707140216461  0.643307803599
C(2)  0.220089466168  0.583421606903  0.353738529007
H(2)  0.498274167012  0.821650099435  0.939876995660
H(2)  0.949375257147  0.793734369473  0.901853479210
H(2)  0.564446092993  0.898256978382  0.240901329631
C(2)  0.341700760814  0.000546570871  0.033630072407
O(2)  0.549827697837  0.460367593475  0.429286379786
N(2)  0.557262052806  0.334946117436  0.321005190357
H(2)  0.186554868432  0.733759599087  0.948297818438
C(2)  0.411496508153  0.423188795452  0.258483813491
H(2)  0.994528014135  0.373824749694  0.522777244708
C(2)  0.945736513072  0.843117057553  0.760820433538
H(2)  0.403729319523  0.507111678878  0.250572062045
O(2)  0.211503660127  0.712688722676  0.931551241943
H(2)  0.859041661883  0.925419732287  0.781838867177
C(2)  0.847880876540  0.325036994517  0.827446829621
H(2)  0.819332529827  0.182927839599  0.363537638298
H(2)  0.149945454199  0.015759119191  0.156748136700
H(2)  0.934695603659  0.696647202375  0.143844627796
C(2)  0.702280515511  0.541108950109  0.944087468802
O(2)  0.505840132020  0.598750765818  0.871756578246
N(2)  0.605908145783  0.117039832361  0.341954190211
H(2)  0.994710759203  0.029232502785  0.119521164594
C(2)  0.604375361003  0.877632710734  0.809724463507
H(2)  0.126895888259  0.486511555159  0.014972379640
C(2)  0.654908166143  0.634287651732  0.043409509493
H(2)  0.847433296757  0.358661976662  0.020029015517
C(2)  0.644734239365  0.236266096157  0.677092321150
H(2)  0.039271869364  0.682279647818  0.261532615376
H(2)  0.208656939071  0.490907652265  0.274774933964
H(2)  0.150852147362  0.877441394951  0.783794956603
C(2)  0.136899255038  0.766858716061  0.878889146601
H(2)  0.759450762556  0.424172555031  0.844881570353
H(2)  0.265634517357  0.471107013541  0.581441897234
H(2)  0.130516366647  0.425492569452  0.509886772176
C(2)  0.402077865608  0.846887885459  0.543824344824
O(2)  0.294966038568  0.468640073968  0.969006456549
N(2)  0.345393958527  0.347049805344  0.977761178922
H(2)  0.760274900198  0.032774172963  0.946197515485
C(2)  0.919273491739  0.496822907276  0.641600259776
H(2)  0.679987118279  0.780158183948  0.882661386200
H(2)  0.623488001345  0.823047157471  0.435647336584
C(2)  0.040848090865  0.584083554360  0.228941492915
O(2)  0.209363802224  0.208286589830  0.780456357698
N(2)  0.951790263728  0.453720183463  0.613223761893
H(2)  0.463162147446  0.668689074943  0.608921204147
C(2)  0.482509513603  0.719861488153  0.962802745525
H(2)  0.121103858224  0.526020548141  0.610331225572
C(2)  0.976424385750  0.968349295977  0.659493964671
H(2)  0.346352348990  0.029632307955  0.889243441549
H(2)  0.630764910278  0.478641699205  0.193392058254
C(2)  0.022771981619  0.053846358970  0.565307376873
C(2)  0.084311043333  0.026706968791  0.994609053362
H(2)  0.808009120917  0.847183297235  0.737961210955
C(2)  0.475610099585  0.911927362248  0.813145868767
H(2)  0.072101000485  0.085779784142  0.278290963847
C(2)  0.184225991568  0.164933190124  0.183527997558
O(2)  0.547304565388  0.113250156513  0.048096928693
H(2)  0.942584407513  0.969742118723  0.382233959952
C(2)  0.527159380803  0.316944233361  0.923097882127
H(2)  0.862324399768  0.291729462032  0.851041160950
C(2)  0.950874740162  0.476916238790  0.784696295454
H(2)  0.588795025728  0.991161739106  0.170315828030
C(2)  0.010053795971  0.086060548340  0.762622791820
O(2)  0.760761099275  0.281451321256  0.494098811512
N(2)  0.444932020906  0.330386917429  0.664502347661
H(2)  0.092630322584  0.952026193946  0.275791690880
C(2)  0.296987386586  0.300991159333  0.464758161025
H(2)  0.292370730367  0.197199119061  0.694158642238
H(2)  0.351649407955  0.639635344487  0.830078296144
C(2)  0.437715250270  0.727531192027  0.294467241073
O(2)  0.357043990343  0.580669193661  0.537977069802
N(2)  0.568923970424  0.495301770558  0.478376261991
H(2)  0.884113839682  0.437368492225  0.031012660304
C(2)  0.075064409649  0.628540418770  0.094720445988
H(2)  0.601867993096  0.494983970599  0.401252355576
C(2)  0.963765990303  0.260855452649  0.769153397261
H(2)  0.806395271788  0.793045166556  0.755275662929
H(2)  0.778720159756  0.327712002513  0.449894776861
C(2)  0.136129520307  0.765398372526  0.231374554785
O(2)  0.651211886445  0.723971138833  0.009093048721
O(2)  0.955307387981  0.707187191163  0.177247264044
C(2)  0.226435929425  0.724765204420  0.207278105265
N(2)  0.666806759268  0.278897089566  0.437094689337
H(2)  0.093552683942  0.160271018137  0.712337132746
H(2)  0.076967400130  0.645676560410  0.887158097731
O(2)  0.667815625598  0.561474310028  0.677522689797
C(3)  0.915075842441  0.078316560010  0.654030614671
H(3)  0.385198954191  0.809511774687  0.449491361753
H(3)  0.633287113583  0.437072458700  0.941069514769
H(3)  0.220044961853  0.192601954555  0.182050588054
C(3)  0.698349051728  0.030108148974  0.306702886425
O(3)  0.905668802459  0.411783049611  0.288185188704
N(3)  0.359316459705  0.962251373053  0.472365965878
H(3)  0.825090130827  0.349728531258  0.351554120701
C(3)  0.807001486279  0.761349759961  0.773667324927
H(3)  0.428721646557  0.443279668989  0.282223907478
C(3)  0.892293798963  0.677201523466  0.543602562397
H(3)  0.805166504877  0.048545966598  0.590425578919
O(3)  0.043802217459  0.918048477745  0.480182936127
H(3)  0.682830407623  0.971526113301  0.081137778166
C(3)  0.677434496917  0.198920889682  0.672091196070
H(3)  0.203088785081  0.597426594121  0.009312999761
H(3)  0.012351852425  0.421814154664  0.439670493560
H(3)  0.871892912289  0.533380276808  0.057640021650
C(3)  0.425768915430  0.033710444515  0.749476187145
O(3)  0.519077409126  0.423156954519  0.618702045664
N(3)  0.413598194767  0.173749404379  0.844506845733
H(3)  0.998564253411  0.490917135217  0.986790182069
C(3)  0.714567935114  0.094392509839  0.572242479275
H(3)  0.184354168288  0.762315238344  0.385489920844
H(3)  0.045450015136  0.328300502402  0.063148917700
C(3)  0.502068967460  0.115300676315  0.981866869286
O(3)  0.424717640290  0.265021837651  0.828293051376
N(3)  0.956514685632  0.414072714019  0.378967130508
H(3)  0.873172565338  0.896327642743  0.423536165031
C(3)  0.243926945852  0.006135391125  0.497810843278
H(3)  0.388341961035  0.629850023402  0.948761062452
C(3)  0.914000135164  0.033688699042  0.413973704064
H(3)  0.735977733439  0.072468904903  0.507284254956
O(3)  0.182345955804  0.389189919171  0.850912415237
H(3)  0.145315662398  0.549679742231  0.922014390664
C(3)  0.980494968896  0.654384884116  0.857070874342
H(3)  0.716925453142  0.703231016348  0.184187823308
H(3)  0.216292280648  0.412605538239  0.905236777978
H(3)  0.825987546882  0.116545904872  0.850192164005
C(3)  0.111023208470  0.868157279483  0.699366987881
O(3)  0.743185664395  0.431527707286  0.176973780526
N(3)  0.649109512526  0.093381809471  0.809241001758
H(3)  0.552268488797  0.894357052710  0.102516925781
C(3)  0.557433672486  0.604356819922  0.153329396971
H(3)  0.109119463240  0.977796273304  0.414319208649
C(3)  0.969631374219  0.482195073349  0.549497639941
H(3)  0.960867945886  0.647782407511  0.848326324519
O(3)  0.099796475366  0.783935698500  0.666036669446
H(3)  0.130805686742  0.643620346889  0.879936953194
C(3)  0.079203885368  0.313816750464  0.405179772750
H(3)  0.013843183998  0.543262697009  0.733816605421
H(3)  0.476182168885  0.888109152990  0.005456429946
H(3)  0.196067920555  0.786724761397  0.771672038108
C(3)  0.538928886240  0.406447090463  0.346740360640
O(3)  0.738640979238  0.478874442778  0.561072370062
N(3)  0.706460089033  0.446343415655  0.290313920907
H(3)  0.292977061164  0.735847855779  0.519212093433
C(3)  0.644633281328  0.063037590398  0.816435170703
H(3)  0.395706760243  0.891667080873  0.980098991448
C(3)  0.743452731964  0.729865233914  0.697591819683
H(3)  0.800613707320  0.426412186924  0.204412917565
C(3)  0.306825381354  0.397177005840  0.475372740997
H(3)  0.545553903915  0.917868263279  0.837497263005
H(3)  0.949361834682  0.735962417493  0.182930209828
H(3)  0.816851318899  0.550848350876  0.166952219834
C(3)  0.113388272553  0.774875190159  0.549388069199
H(3)  0.919058560935  0.685380624785  0.813746018615
H(3)  0.113031622779  0.084830711177  0.953091592994
H(3)  0.543241187487  0.759569425696  0.766928568296
C(3)  0.568999917689  0.033637352397  0.020325472939
O(3)  0.014687301820  0.783443859124  0.306025400042
N(3)  0.634581786058  0.737081888481  0.204846256200
H(3)  0.954905844891  0.674205545207  0.482797008711
C(3)  0.402917054660  0.721146246578  0.589226130793
H(3)  0.408867546222  0.336195652859  0.848645571102
H(3)  0.162424777196  0.902310881894  0.320215899402
C(3)  0.040571259829  0.465006303476  0.690465376078
O(3)  0.494229462009  0.181006576445  0.560136581563
N(3)  0.887093655248  0.625846211799  0.387473085364
H(3)  0.811366737244  0.333826646221  0.366862493897
C(3)  0.903295182262  0.881605296915  0.853372449280
H(3)  0.911173811316  0.620275386487  0.871423874668
C(3)  0.195325853796  0.057045935634  0.572414354075
H(3)  0.369412522078  0.178001108890  0.452265301191
H(3)  0.355241623162  0.006318344892  0.648485647954
C(3)  0.101067056000  0.901709876914  0.258280249822
C(3)  0.186861977771  0.949860291327  0.783715723272
H(3)  0.305036486675  0.665926853707  0.492455524737
C(3)  0.405055751493  0.284219640447  0.800301361697
H(3)  0.390848794178  0.853315558916  0.916817449101
C(3)  0.843142446211  0.475229319647  0.309368660460
O(3)  0.064612457011  0.990825030820  0.227815620542
H(3)  0.632897088415  0.970796065522  0.879724613558
C(3)  0.050073440975  0.960200410024  0.591530701700
H(3)  0.497240669735  0.372036245587  0.743917600349
C(3)  0.165908914454  0.549441202363  0.074101189984
H(3)  0.661962945346  0.825217894908  0.007286615313
C(3)  0.483829399510  0.331669039542  0.853806353521
O(3)  0.433213711437  0.393887826519  0.578852505985
N(3)  0.860071663024  0.219560047360  0.400539178711
H(3)  0.056079049776  0.093748754462  0.947309496940
C(3)  0.258661965238  0.817591099636  0.322672694137
H(3)  0.533191804257  0.022043043766  0.554950572391
H(3)  0.720806107856  0.241098894250  0.106727950945
C(3)  0.645388059483  0.531027699059  0.616437819860
O(3)  0.480422405809  0.923310014894  0.215874106945
N(3)  0.238573529715  0.997005724105  0.037454925747
H(3)  0.555866731079  0.811245396403  0.645167986205
C(3)  0.106741792392  0.567554512580  0.973415499956
H(3)  0.748363546735  0.852941871326  0.771669578624
C(3)  0.966739975826  0.375478390186  0.910675265128
H(3)  0.238648467988  0.187388356285  0.075513342378
H(3)  0.447628116160  0.842578548999  0.566821011801
C(3)  0.250896100300  0.503012609066  0.958118605848
O(3)  0.006093923640  0.664429056747  0.401375714318
O(3)  0.395985330261  0.515006591932  0.655566141485
C(3)  0.277641588865  0.725088261660  0.057330415049
N(3)  0.280059414598  0.014792488795  0.301821956154
H(3)  0.557837174872  0.510395581243  0.339249363263
H(3)  0.427324710831  0.271052219404  0.847543936365
O(3)  0.312209432357  0.096162544758  0.029898530680
C(4)  0.593835220712  0.215831568962  0.783162420297
H(4)  0.252299464282  0.230482744733  0.937500611219
H(4)  0.118416412496  0.747426273051  0.908180990891
H(4)  0.567497567555  0.764530122853  0.309056415341
C(4)  0.298814690327  0.356226581899  0.868433550864
O(4)  0.279817353481  0.301531358550  0.349691702649
N(4)  0.164056403433  0.362802925452  0.334818321250
H(4)  0.185233372963  0.303073122356  0.836325199672
C(4)  0.559431392915  0.835540766940  0.243824948948
H(4)  0.599273157080  0.581913210712  0.578664145766
C(4)  0.802667131940  0.974964647477  0.544857662022
H(4)  0.203110334529  0.422347231624  0.470327451127
O(4)  0.790975132238  0.024990325949  0.235582069088
H(4)  0.028301759216  0.218348034790  0.730735384259
C(4)  0.002912194016  0.217050984115  0.110119332669
H(4)  0.648248545088  0.740417307801  0.433256308609
H(4)  0.704506167164  0.759782005645  0.574279834330
H(4)  0.085611977358  0.723355505294  0.398819570416
C(4)  0.126536776826  0.195629611706  0.855916860441
O(4)  0.443315127819  0.486959190289  0.446642209868
N(4)  0.916039995698  0.099213762352  0.560685183769
H(4)  0.828773805343  0.741735782940  0.876530772500
C(4)  0.156464077492  0.454094404904  0.811364059259
H(4)  0.778538859310  0.151338504401  0.682142463869
H(4)  0.598867145394  0.752387802635  0.977157352712
C(4)  0.866670712511  0.477352378441  0.367874151016
O(4)  0.553663519059  0.107081757494  0.667403008928
N(4)  0.489859661669  0.867677089039  0.190512368264
H(4)  0.647814448502  0.079540740942  0.754579091255
C(4)  0.061957471802  0.455049290344  0.128733698662
H(4)  0.123298725026  0.076057672564  0.625678175870
C(4)  0.342935281961  0.929332274692  0.020391003932
H(4)  0.664229577506  0.011195543607  0.789728277797
O(4)  0.407986120817  0.574974853366  0.319227905836
H(4)  0.707578514313  0.774767768735  0.642259880782
C(4)  0.587678444008  0.162538677900  0.354647008749
H(4)  0.662950953359  0.369734058004  0.532226420127
H(4)  0.749853939171  0.365749028564  0.783171511842
H(4)  0.617082772503  0.251356683749  0.933643645259
C(4)  0.898525328712  0.837255318479  0.813385845106
O(4)  0.761157738732  0.786026919197  0.644122269764
N(4)  0.648052690553  0.249458822654  0.002183498708
H(4)  0.033086717254  0.827529927129  0.772205146155
C(4)  0.079327359271  0.498659120009  0.113801556135
H(4)  0.180332335985  0.623032499249  0.378100853987
C(4)  0.421720658852  0.709597981855  0.473164367037
H(4)  0.587494608103  0.035271771308  0.042360122446
O(4)  0.706918549325  0.572693529534  0.444723809963
H(4)  0.298038478535  0.742789474469  0.698229343407
C(4)  0.600479688632  0.682364275091  0.090726928737
H(4)  0.253450187997  0.062996725714  0.609828916673
H(4)  0.067974052163  0.127805765584  0.063658183569
H(4)  0.495973346290  0.336778051594  0.076116584855
C(4)  0.881834971743  0.381699928017  0.505974465896
O(4)  0.424511461914  0.334185051389  0.037515930158
N(4)  0.436764806742  0.855230570280  0.105429357963
H(4)  0.548472087346  0.651464728795  0.443599474785
C(4)  0.991655141979  0.017804399855  0.587115913179
H(4)  0.723855186290  0.622675550216  0.521965638289
C(4)  0.681224008337  0.043894488989  0.197382777814
H(4)  0.551260708589  0.130412082396  0.739386089901
C(4)  0.721379641449  0.140183790141  0.210288933456
H(4)  0.544813840640  0.706952331148  0.524642905059
H(4)  0.803704309241  0.801235221501  0.933415696805
H(4)  0.665460978300  0.047578803597  0.644544570384
C(4)  0.874556025973  0.658602696082  0.040332485883
H(4)  0.678932142118  0.771376525291  0.447679380379
H(4)  0.719926130135  0.941133806589  0.973281478950
H(4)  0.018053570643  0.999554383110  0.934418543183
C(4)  0.264533228528  0.228024892978  0.554526420769
O(4)  0.382011432294  0.220886448931  0.830000503615
N(4)  0.287524824401  0.337326396913  0.053233536001
H(4)  0.453505325435  0.884383695075  0.973631447518
C(4)  0.775644166638  0.046540079296  0.732990785733
H(4)  0.039167625841  0.760327729704  0.785824891848
H(4)  0.132230503695  0.371794681625  0.687366540022
C(4)  0.075713280842  0.864224124466  0.084398111433
O(4)  0.107450692728  0.463021316063  0.861102777334
N(4)  0.644546092658  0.743295207221  0.192229942027
H(4)  0.238023726834  0.363877743258  0.506765276380
C(4)  0.632587498117  0.714391479421  0.891509456539
H(4)  0.804799642071  0.411403195857  0.961247342735
C(4)  0.140188526098  0.407069531430  0.621989987431
H(4)  0.960104554331  0.965338663930  0.914824270543
H(4)  0.496684532855  0.551587996474  0.334808353386
C(4)  0.204191276049  0.115757250738  0.050785544037
C(4)  0.762426948286  0.963860504049  0.595633281624
H(4)  0.331592821564  0.525016383774  0.713211800286
C(4)  0.410523771658  0.634907523398  0.463578687001
H(4)  0.838259026820  0.279295625214  0.304613528669
C(4)  0.752647474735  0.841759985521  0.941108733486
O(4)  0.478612834558  0.276659487330  0.667270047293
H(4)  0.932299398455  0.899959023019  0.713092993494
C(4)  0.763382414338  0.413508598682  0.932004409758
H(4)  0.190326666068  0.735638686762  0.530744022186
C(4)  0.235018377321  0.491361923398  0.833097810527
H(4)  0.553479451544  0.727721113479  0.538086558981
C(4)  0.428685946249  0.138688318358  0.890874996868
O(4)  0.106185696126  0.616689032706  0.083665140032
N(4)  0.088876639862  0.214565676878  0.157555988907
H(4)  0.701717518287  0.159405107253  0.136014655976
C(4)  0.956492046631  0.314003084906  0.763103785350
H(4)  0.779604873316  0.314664009301  0.538769905217
H(4)  0.508809829987  0.705457416040  0.289787694173
C(4)  0.785271081096  0.712047725906  0.554898859701
O(4)  0.409833489440  0.630056951192  0.828754351289
N(4)  0.812312496221  0.539908888453  0.772239927643
H(4)  0.277087318906  0.885507410197  0.070398706000
C(4)  0.397169016026  0.462437700170  0.474616247505
H(4)  0.303912909927  0.188330396536  0.660727977366
C(4)  0.920627078541  0.110058397871  0.046036644580
H(4)  0.276367685471  0.522402058126  0.331065643137
H(4)  0.490882579070  0.675457651636  0.624731678727
C(4)  0.927850314990  0.528524847454  0.518058234936
O(4)  0.211109187408  0.340050833965  0.810800390053
O(4)  0.122909688653  0.994044673042  0.246070619430
C(4)  0.821950429787  0.610376104263  0.168570402838
N(4)  0.010733849174  0.776213366511  0.367717024881
H(4)  0.352738689805  0.267998928953  0.907809068911
H(4)  0.900206460941  0.517515239608  0.723422231150
O(4)  0.622706231005  0.653402102222  0.055705021207
K(5)  0.238265036138  0.892184832456  0.926490090149
K(5)  0.558580212998  0.863111149407  0.498434706564
K(5)  0.200772614241  0.743940464146  0.885768383394
K(5)  0.118998609214  0.383859797464  0.459645325568
O(5)  0.317773974268  0.678452439947  0.355722166232
H(5)  0.283164428336  0.234396966950  0.331038179451
H(5)  0.647954944534  0.429244994517  0.568763592444
O(5)  0.045100666869  0.701623079929  0.739295634444
H(5)  0.552094537980  0.563589943163  0.017416413046
H(5)  0.878971719449  0.128899334113  0.813308007616
O(5)  0.863831704585  0.678426965052  0.805661261312
H(5)  0.326420599028  0.188607222782  0.394323602611
H(5)  0.326573342337  0.216341633375  0.379840378962
O(5)  0.841182004483  0.473548162372  0.132859820299
H(5)  0.949547677506  0.967150381381  0.714943325618
H(5)  0.068384234499  0.034944551986  0.394984484112
*
